** ============================================================
** Horizontal Cantilever Beam — CalculiX CCX input file
** ============================================================
** Geometry  : 500 mm long × 20 mm wide × 10 mm tall
** Elements  : C3D8 (8-node linear hex), 25×2×1 mesh = 50 elements
** Units     : mm, N, MPa
** BCs       : Left face (x=0) fully fixed (U1=U2=U3=0)
** Load      : 100 N total downward (-Z) on right face (x=500)
**             distributed across 6 nodes (16.67 N each)
** Material  : placeholder — patched by prepare job
**
** Analytical solution (Euler-Bernoulli beam theory):
**   I = b h³/12 = 20×10³/12 = 1666.7 mm⁴
**   δ_tip = F L³ / 3EI
**   σ_max = F L (h/2) / I  at root (x=0)
**
**   Steel A36  (E=200000 MPa): δ=12.50 mm  σ=150.0 MPa  FoS=1.67
**   Al 6061    (E=68900  MPa): δ=36.28 mm  σ=150.0 MPa  FoS=1.84
**
**   FoS in orange zone (1.5-2.0) — makes report interesting.
**   Displacement differs 3× between materials — clearly visible.
**
** Note: set AppliedForceN=100 in values.yaml
** ============================================================

*NODE, NSET=NALL
** Nodes laid out on a 26×3×2 grid
** x runs 0..500 in 25 steps of 20 mm (long axis)
** y runs 0..20 in 2 steps of 10 mm  (width)
** z runs 0..10 in 1 step  of 10 mm  (height)
**
** Node numbering: nid = ix*6 + iy*2 + iz + 1
** ix=0..25 (x), iy=0..2 (y), iz=0..1 (z)
      1,   0.0,   0.0,   0.0
      2,   0.0,   0.0,  10.0
      3,   0.0,  10.0,   0.0
      4,   0.0,  10.0,  10.0
      5,   0.0,  20.0,   0.0
      6,   0.0,  20.0,  10.0
      7,  20.0,   0.0,   0.0
      8,  20.0,   0.0,  10.0
      9,  20.0,  10.0,   0.0
     10,  20.0,  10.0,  10.0
     11,  20.0,  20.0,   0.0
     12,  20.0,  20.0,  10.0
     13,  40.0,   0.0,   0.0
     14,  40.0,   0.0,  10.0
     15,  40.0,  10.0,   0.0
     16,  40.0,  10.0,  10.0
     17,  40.0,  20.0,   0.0
     18,  40.0,  20.0,  10.0
     19,  60.0,   0.0,   0.0
     20,  60.0,   0.0,  10.0
** ... 136 like lines cut

** ============================================================
** ELEMENTS — C3D8 hex, 25 elements along x, 2 along y, 1 along z
** Connectivity: n1-n8 in CCX right-hand rule order
** Face at x=0: nodes 1-6  (FIXED)
** Face at x=500: nodes 151-156 (LOADED)
** ============================================================
*ELEMENT, TYPE=C3D8, ELSET=EALL
** Format: eid, n1,n2,n3,n4, n5,n6,n7,n8
** Bottom face nodes (z=0) then top face (z=10), CCX convention
  1,  1, 7, 9, 3,  2, 8,10, 4
  2,  3, 9,11, 5,  4,10,12, 6
  3,  7,13,15, 9,  8,14,16,10
  4,  9,15,17,11, 10,16,18,12
  5, 13,19,21,15, 14,20,22,16
  6, 15,21,23,17, 16,22,24,18
  7, 19,25,27,21, 20,26,28,22
  8, 21,27,29,23, 22,28,30,24
  9, 25,31,33,27, 26,32,34,28
 10, 27,33,35,29, 28,34,36,30
 11, 31,37,39,33, 32,38,40,34
 12, 33,39,41,35, 34,40,42,36
 13, 37,43,45,39, 38,44,46,40
 14, 39,45,47,41, 40,46,48,42
 15, 43,49,51,45, 44,50,52,46
 16, 45,51,53,47, 46,52,54,48
 17, 49,55,57,51, 50,56,58,52
 18, 51,57,59,53, 52,58,60,54
 19, 55,61,63,57, 56,62,64,58
 20, 57,63,65,59, 58,64,66,60
** ... 30 like lines cut

** ============================================================
** NODE SETS
** ============================================================
*NSET, NSET=FIXED
** Left face x=0: all 6 nodes
1, 2, 3, 4, 5, 6

*NSET, NSET=LOAD
** Right face x=500: all 6 nodes
151, 152, 153, 154, 155, 156

*NSET, NSET=TIP
** Tip centroid nodes for displacement output
153, 154

** ============================================================
** MATERIAL — placeholders patched by prepare job
** ============================================================
*MATERIAL, NAME=METAL
*ELASTIC
210000., 0.3
*DENSITY
7.85e-9,

** ============================================================
** SECTION
** ============================================================
*SOLID SECTION, ELSET=EALL, MATERIAL=METAL

** ============================================================
** STEP
** ============================================================
*STEP
*STATIC

** Fixed support — all DOF at left face
*BOUNDARY
1, 1, 3, 0.0
2, 1, 3, 0.0
3, 1, 3, 0.0
4, 1, 3, 0.0
5, 1, 3, 0.0
6, 1, 3, 0.0

** Downward load (-Z direction, DOF 3) distributed over 6 tip nodes
** Total = 100 N → 16.67 N per node
*CLOAD
151, 3, -16.67
152, 3, -16.67
153, 3, -16.67
154, 3, -16.67
155, 3, -16.67
156, 3, -16.67

** Output requests
*NODE PRINT, NSET=NALL
U
*EL PRINT, ELSET=EALL
S
*NODE FILE, NSET=NALL
U
*EL FILE, ELSET=EALL
S

*END STEP
