** ============================================================
** L-Bracket with Fillet — CalculiX CCX input file
** ============================================================
** Geometry  : L-bracket, two 20x80mm legs, 10mm thick
**             Fillet radius R=8mm at inner corner
** Elements  : C3D8 hex, 4mm grid in X/Y, 2mm in Z
**             1278 nodes, 850 elements
** Units     : mm, N, MPa
** BCs       : Top face of vertical leg (y=80) fully fixed
** Load      : 500 N downward (-Y) on tip face (x=80)
**
** Analytical reference (at fillet root, nominal):
**   M = F * (LH - R) = 500 * 72 = 36000 N·mm
**   I = T * W³/12 = 10*20³/12 = 6666.7 mm⁴
**   sigma_nom = M*c/I = 36000*10/6666.7 = 54.0 MPa
**   Kt ≈ 1 + sqrt(W/2R) = 1 + sqrt(20/16) = 2.12
**   sigma_peak ≈ Kt * sigma_nom = 114.4 MPa
**   Steel FoS_nom=4.63  FoS_peak≈2.19
**   Al 6061 FoS_nom=5.11  FoS_peak≈2.41
**
** Note: set AppliedForceN=500 in values.yaml
**
** VALIDATION: sigma_nom=54.0 kt=2.12 sigma_peak=114.4
** VALIDATION: tip_disp=0.1280
** ============================================================

*NODE, NSET=NALL
       1,     0.0000,     0.0000,     0.0000
       2,     4.0000,     0.0000,     0.0000
       3,     8.0000,     0.0000,     0.0000
       4,    12.0000,     0.0000,     0.0000
       5,    16.0000,     0.0000,     0.0000
       6,    20.0000,     0.0000,     0.0000
       7,    24.0000,     0.0000,     0.0000
       8,    28.0000,     0.0000,     0.0000
       9,    32.0000,     0.0000,     0.0000
      10,    36.0000,     0.0000,     0.0000
      11,    40.0000,     0.0000,     0.0000
      12,    44.0000,     0.0000,     0.0000
      13,    48.0000,     0.0000,     0.0000
      14,    52.0000,     0.0000,     0.0000
      15,    56.0000,     0.0000,     0.0000
      16,    60.0000,     0.0000,     0.0000
      17,    64.0000,     0.0000,     0.0000
      18,    68.0000,     0.0000,     0.0000
      19,    72.0000,     0.0000,     0.0000
      20,    76.0000,     0.0000,     0.0000
** ... 1258 like lines cut

*ELEMENT, TYPE=C3D8, ELSET=EALL
       1, 1,2,23,22, 214,215,236,235
       2, 2,3,24,23, 215,216,237,236
       3, 3,4,25,24, 216,217,238,237
       4, 4,5,26,25, 217,218,239,238
       5, 5,6,27,26, 218,219,240,239
       6, 6,7,28,27, 219,220,241,240
       7, 7,8,29,28, 220,221,242,241
       8, 8,9,30,29, 221,222,243,242
       9, 9,10,31,30, 222,223,244,243
      10, 10,11,32,31, 223,224,245,244
      11, 11,12,33,32, 224,225,246,245
      12, 12,13,34,33, 225,226,247,246
      13, 13,14,35,34, 226,227,248,247
      14, 14,15,36,35, 227,228,249,248
      15, 15,16,37,36, 228,229,250,249
      16, 16,17,38,37, 229,230,251,250
      17, 17,18,39,38, 230,231,252,251
      18, 18,19,40,39, 231,232,253,252
      19, 19,20,41,40, 232,233,254,253
      20, 20,21,42,41, 233,234,255,254
** ... 830 like lines cut

*NSET, NSET=FIXED
  208, 209, 210, 211, 212, 213, 421, 422
  423, 424, 425, 426, 634, 635, 636, 637
  638, 639, 847, 848, 849, 850, 851, 852
  1060, 1061, 1062, 1063, 1064, 1065, 1273, 1274
  1275, 1276, 1277, 1278

*NSET, NSET=LOAD
  21, 42, 63, 84, 105, 124, 234, 255
  276, 297, 318, 337, 447, 468, 489, 510
  531, 550, 660, 681, 702, 723, 744, 763
  873, 894, 915, 936, 957, 976, 1086, 1107
  1128, 1149, 1170, 1189

*MATERIAL, NAME=METAL
*ELASTIC
210000., 0.3
*DENSITY
7.85e-9,

*SOLID SECTION, ELSET=EALL, MATERIAL=METAL

*STEP
*STATIC

*BOUNDARY
  208, 1, 3, 0.0
  209, 1, 3, 0.0
  210, 1, 3, 0.0
  211, 1, 3, 0.0
  212, 1, 3, 0.0
  213, 1, 3, 0.0
  421, 1, 3, 0.0
  422, 1, 3, 0.0
  423, 1, 3, 0.0
  424, 1, 3, 0.0
  425, 1, 3, 0.0
  426, 1, 3, 0.0
  634, 1, 3, 0.0
  635, 1, 3, 0.0
  636, 1, 3, 0.0
  637, 1, 3, 0.0
  638, 1, 3, 0.0
  639, 1, 3, 0.0
  847, 1, 3, 0.0
  848, 1, 3, 0.0
** ... 16 like lines cut

** 500 N total downward (-Y, DOF 2) over 36 nodes = -13.8889 N/node
*CLOAD
  21, 2, -13.888889
  42, 2, -13.888889
  63, 2, -13.888889
  84, 2, -13.888889
  105, 2, -13.888889
  124, 2, -13.888889
  234, 2, -13.888889
  255, 2, -13.888889
  276, 2, -13.888889
  297, 2, -13.888889
  318, 2, -13.888889
  337, 2, -13.888889
  447, 2, -13.888889
  468, 2, -13.888889
  489, 2, -13.888889
  510, 2, -13.888889
  531, 2, -13.888889
  550, 2, -13.888889
  660, 2, -13.888889
  681, 2, -13.888889
** ... 16 like lines cut

*NODE PRINT, NSET=NALL
U
*EL PRINT, ELSET=EALL
S
*NODE FILE, NSET=NALL
U
*EL FILE, ELSET=EALL
S

*END STEP