** ============================================================
** Plate with Central Hole — CalculiX CCX input file
** ============================================================
** Geometry  : 100x100x5mm plate, central hole r=10mm
** Elements  : C3D8 hex, graded mesh 2mm near hole / 5mm far
**             3261 nodes, 2002 elements
** Units     : mm, N, MPa
**
** Boundary conditions:
**   Left face  (x=0):   fixed X (DOF 1) — zero displacement
**   Bottom face(y=0):   fixed Y (DOF 2) — symmetry plane
**   Front face (z=0):   fixed Z (DOF 3) — symmetry plane
**   Right face (x=100): 5000 N tension in X direction
**
** Analytical reference (Kirsch 1898, Peterson finite correction):
**   Nominal stress sigma_nom = F/(H*T) = 10 MPa
**   Kt_infinite = 3.00  (classical hole-in-plate result)
**   d/W = 0.20  Kt_finite ≈ 2.85  (Peterson 1974)
**   Peak stress at hole edge (theta=90): ~28.5 MPa
**   X-displacement right edge: ~0.005mm (steel)
**
** VALIDATION: sigma_nom=10.0 kt=2.85 sigma_peak=28.5
** VALIDATION: tip_disp=0.0050
** ============================================================

*NODE, NSET=NALL
       1,       0.0000,       0.0000,       0.0000
       2,       0.0000,       0.0000,       2.5000
       3,       0.0000,       0.0000,       5.0000
       4,       0.0000,       5.0000,       0.0000
       5,       0.0000,       5.0000,       2.5000
       6,       0.0000,       5.0000,       5.0000
       7,       0.0000,      10.0000,       0.0000
       8,       0.0000,      10.0000,       2.5000
       9,       0.0000,      10.0000,       5.0000
      10,       0.0000,      15.0000,       0.0000
      11,       0.0000,      15.0000,       2.5000
      12,       0.0000,      15.0000,       5.0000
      13,       0.0000,      20.0000,       0.0000
      14,       0.0000,      20.0000,       2.5000
      15,       0.0000,      20.0000,       5.0000
      16,       0.0000,      25.0000,       0.0000
      17,       0.0000,      25.0000,       2.5000
      18,       0.0000,      25.0000,       5.0000
      19,       0.0000,      30.0000,       0.0000
      20,       0.0000,      30.0000,       2.5000
** ... 3241 like lines cut

*ELEMENT, TYPE=C3D8, ELSET=EALL
       1, 1,103,106,4, 2,104,107,5
       2, 103,205,208,106, 104,206,209,107
       3, 205,307,310,208, 206,308,311,209
       4, 307,409,412,310, 308,410,413,311
       5, 409,511,514,412, 410,512,515,413
       6, 511,613,616,514, 512,614,617,515
       7, 613,715,718,616, 614,716,719,617
       8, 715,817,820,718, 716,818,821,719
       9, 817,919,922,820, 818,920,923,821
      10, 919,1021,1024,922, 920,1022,1025,923
      11, 1021,1123,1126,1024, 1022,1124,1127,1025
      12, 1123,1225,1228,1126, 1124,1226,1229,1127
      13, 1225,1312,1315,1228, 1226,1313,1316,1229
      14, 1312,1393,1396,1315, 1313,1394,1397,1316
      15, 1393,1468,1471,1396, 1394,1469,1472,1397
      16, 1468,1543,1546,1471, 1469,1544,1547,1472
      17, 1543,1618,1621,1546, 1544,1619,1622,1547
      18, 1618,1693,1696,1621, 1619,1694,1697,1622
      19, 1693,1768,1771,1696, 1694,1769,1772,1697
      20, 1768,1849,1852,1771, 1769,1850,1853,1772
** ... 1982 like lines cut

*NSET, NSET=FIXED_X
  1, 2, 3, 4, 5, 6, 7, 8
  9, 10, 11, 12, 13, 14, 15, 16
  17, 18, 19, 20, 21, 22, 23, 24
  25, 26, 27, 28, 29, 30, 31, 32
  33, 34, 35, 36, 37, 38, 39, 40
  41, 42, 43, 44, 45, 46, 47, 48
  49, 50, 51, 52, 53, 54, 55, 56
  57, 58, 59, 60, 61, 62, 63, 64
  65, 66, 67, 68, 69, 70, 71, 72
  73, 74, 75, 76, 77, 78, 79, 80
  81, 82, 83, 84, 85, 86, 87, 88
  89, 90, 91, 92, 93, 94, 95, 96
  97, 98, 99, 100, 101, 102

*NSET, NSET=FIXED_Y
  1, 2, 3, 103, 104, 105, 205, 206
  207, 307, 308, 309, 409, 410, 411, 511
  512, 513, 613, 614, 615, 715, 716, 717
  817, 818, 819, 919, 920, 921, 1021, 1022
  1023, 1123, 1124, 1125, 1225, 1226, 1227, 1312
  1313, 1314, 1393, 1394, 1395, 1468, 1469, 1470
  1543, 1544, 1545, 1618, 1619, 1620, 1693, 1694
  1695, 1768, 1769, 1770, 1849, 1850, 1851, 1936
  1937, 1938, 2038, 2039, 2040, 2140, 2141, 2142
  2242, 2243, 2244, 2344, 2345, 2346, 2446, 2447
  2448, 2548, 2549, 2550, 2650, 2651, 2652, 2752
  2753, 2754, 2854, 2855, 2856, 2956, 2957, 2958
  3058, 3059, 3060, 3160, 3161, 3162

*NSET, NSET=FIXED_Z
  1, 4, 7, 10, 13, 16, 19, 22
  25, 28, 31, 34, 37, 40, 43, 46
  49, 52, 55, 58, 61, 64, 67, 70
  73, 76, 79, 82, 85, 88, 91, 94
  97, 100, 103, 106, 109, 112, 115, 118
  121, 124, 127, 130, 133, 136, 139, 142
  145, 148, 151, 154, 157, 160, 163, 166
  169, 172, 175, 178, 181, 184, 187, 190
  193, 196, 199, 202, 205, 208, 211, 214
  217, 220, 223, 226, 229, 232, 235, 238
  241, 244, 247, 250, 253, 256, 259, 262
  265, 268, 271, 274, 277, 280, 283, 286
  289, 292, 295, 298, 301, 304, 307, 310
  313, 316, 319, 322, 325, 328, 331, 334
  337, 340, 343, 346, 349, 352, 355, 358
  361, 364, 367, 370, 373, 376, 379, 382
  385, 388, 391, 394, 397, 400, 403, 406
  409, 412, 415, 418, 421, 424, 427, 430
  433, 436, 439, 442, 445, 448, 451, 454
  457, 460, 463, 466, 469, 472, 475, 478
** ... 116 like lines cut

*NSET, NSET=LOAD
  3160, 3161, 3162, 3163, 3164, 3165, 3166, 3167
  3168, 3169, 3170, 3171, 3172, 3173, 3174, 3175
  3176, 3177, 3178, 3179, 3180, 3181, 3182, 3183
  3184, 3185, 3186, 3187, 3188, 3189, 3190, 3191
  3192, 3193, 3194, 3195, 3196, 3197, 3198, 3199
  3200, 3201, 3202, 3203, 3204, 3205, 3206, 3207
  3208, 3209, 3210, 3211, 3212, 3213, 3214, 3215
  3216, 3217, 3218, 3219, 3220, 3221, 3222, 3223
  3224, 3225, 3226, 3227, 3228, 3229, 3230, 3231
  3232, 3233, 3234, 3235, 3236, 3237, 3238, 3239
  3240, 3241, 3242, 3243, 3244, 3245, 3246, 3247
  3248, 3249, 3250, 3251, 3252, 3253, 3254, 3255
  3256, 3257, 3258, 3259, 3260, 3261

*MATERIAL, NAME=METAL
*ELASTIC
210000., 0.3
*DENSITY
7.85e-9,

*SOLID SECTION, ELSET=EALL, MATERIAL=METAL

*STEP
*STATIC

*BOUNDARY
  1, 1, 1, 0.0
  2, 1, 1, 0.0
  3, 1, 1, 0.0
  4, 1, 1, 0.0
  5, 1, 1, 0.0
  6, 1, 1, 0.0
  7, 1, 1, 0.0
  8, 1, 1, 0.0
  9, 1, 1, 0.0
  10, 1, 1, 0.0
  11, 1, 1, 0.0
  12, 1, 1, 0.0
  13, 1, 1, 0.0
  14, 1, 1, 0.0
  15, 1, 1, 0.0
  16, 1, 1, 0.0
  17, 1, 1, 0.0
  18, 1, 1, 0.0
  19, 1, 1, 0.0
  20, 1, 1, 0.0
** ... 1271 like lines cut

** 5000 N total in +X over 102 nodes = 49.0196 N/node
*CLOAD
  3160, 1, 49.019608
  3161, 1, 49.019608
  3162, 1, 49.019608
  3163, 1, 49.019608
  3164, 1, 49.019608
  3165, 1, 49.019608
  3166, 1, 49.019608
  3167, 1, 49.019608
  3168, 1, 49.019608
  3169, 1, 49.019608
  3170, 1, 49.019608
  3171, 1, 49.019608
  3172, 1, 49.019608
  3173, 1, 49.019608
  3174, 1, 49.019608
  3175, 1, 49.019608
  3176, 1, 49.019608
  3177, 1, 49.019608
  3178, 1, 49.019608
  3179, 1, 49.019608
** ... 82 like lines cut

*NODE PRINT, NSET=NALL
U
*EL PRINT, ELSET=EALL
S
*NODE FILE, NSET=NALL
U
*EL FILE, ELSET=EALL
S

*END STEP